
Circuit: * 17-stage CMOS ring oscillator

Circuit: * 17-stage CMOS ring oscillator
Date: Wed Feb 15 12:40:13  2017


                        * 17-stage CMOS ring oscillator
                        Transient Analysis  Wed Feb 15 12:40:12  2017
--------------------------------------------------------------------------------
Index   time            v(2)            
--------------------------------------------------------------------------------
0	0.000000e+00	2.000000e+00	
1	1.000000e-12	1.955602e+00	
2	2.000000e-12	1.911815e+00	
3	4.000000e-12	1.824538e+00	
4	8.000000e-12	1.656116e+00	
5	1.600000e-11	1.396336e+00	
6	2.518877e-11	1.139544e+00	
7	3.953593e-11	7.882815e-01	
8	5.504247e-11	4.965736e-01	
9	7.198611e-11	2.934594e-01	
10	9.510640e-11	1.406062e-01	
11	1.190363e-10	7.632683e-02	
12	1.444490e-10	5.772838e-02	
13	1.686344e-10	5.727606e-02	
14	1.888940e-10	5.852655e-02	
15	2.146763e-10	6.189833e-02	
16	2.409198e-10	6.758564e-02	
17	2.697786e-10	7.170449e-02	
18	2.985653e-10	7.404839e-02	
19	3.298854e-10	7.457776e-02	
20	3.586183e-10	7.493611e-02	
21	3.887344e-10	7.481375e-02	
22	4.172683e-10	7.497017e-02	
23	4.454373e-10	7.470886e-02	
24	4.726788e-10	7.483831e-02	
25	4.987502e-10	7.463458e-02	
26	5.249886e-10	7.480120e-02	
27	5.533065e-10	7.461553e-02	
28	5.807735e-10	7.480780e-02	
29	6.061338e-10	7.462179e-02	
30	6.318225e-10	7.480304e-02	
31	6.576175e-10	7.462291e-02	
32	6.853140e-10	7.480092e-02	
33	7.122887e-10	7.462344e-02	
34	7.381829e-10	7.480520e-02	
35	7.636029e-10	7.461667e-02	
36	7.891315e-10	7.478029e-02	
37	8.163727e-10	7.461616e-02	
38	8.428032e-10	7.488519e-02	
39	8.706591e-10	7.480355e-02	
40	8.959761e-10	7.476741e-02	
41	9.206532e-10	7.409274e-02	
42	9.477523e-10	7.424934e-02	
43	9.727961e-10	7.618047e-02	
44	9.949977e-10	8.043711e-02	
45	1.017172e-09	7.915893e-02	
46	1.041279e-09	7.039376e-02	
47	1.067707e-09	5.378760e-02	
48	1.095395e-09	5.592673e-02	
49	1.120380e-09	1.173881e-01	
50	1.146040e-09	2.847887e-01	
51	1.173447e-09	5.844654e-01	
52	1.210346e-09	1.071046e+00	
53	1.244617e-09	1.484267e+00	
54	1.281327e-09	1.736940e+00	

Index   time            v(2)            
--------------------------------------------------------------------------------
55	1.310959e-09	1.818205e+00	
56	1.339986e-09	1.854826e+00	
57	1.369230e-09	1.871421e+00	
58	1.399781e-09	1.878209e+00	
59	1.430960e-09	1.879743e+00	
60	1.458678e-09	1.880274e+00	
61	1.486048e-09	1.880438e+00	
62	1.515671e-09	1.880442e+00	
63	1.543540e-09	1.880137e+00	
64	1.574099e-09	1.880044e+00	
65	1.603156e-09	1.879920e+00	
66	1.630764e-09	1.879987e+00	
67	1.660011e-09	1.879891e+00	
68	1.687510e-09	1.879968e+00	
69	1.709061e-09	1.879889e+00	
70	1.736828e-09	1.879972e+00	
71	1.763854e-09	1.879892e+00	
72	1.791956e-09	1.879974e+00	
73	1.818803e-09	1.879897e+00	
74	1.839904e-09	1.879975e+00	
75	1.866369e-09	1.879892e+00	
76	1.892028e-09	1.879965e+00	
77	1.918927e-09	1.879893e+00	
78	1.944282e-09	1.880008e+00	
79	1.965993e-09	1.879977e+00	
80	1.989554e-09	1.880001e+00	
81	2.015206e-09	1.879720e+00	
82	2.042066e-09	1.879660e+00	
83	2.067215e-09	1.880160e+00	
84	2.095217e-09	1.882310e+00	
85	2.123496e-09	1.881589e+00	
86	2.153500e-09	1.874758e+00	
87	2.181647e-09	1.870598e+00	
88	2.207266e-09	1.895043e+00	
89	2.231337e-09	1.954144e+00	
90	2.254487e-09	1.987518e+00	
91	2.276238e-09	1.957328e+00	
92	2.302100e-09	1.839271e+00	
93	2.336282e-09	1.459179e+00	
94	2.367543e-09	9.811236e-01	
95	2.412995e-09	3.476292e-01	
96	2.442617e-09	1.410092e-01	
97	2.474633e-09	6.809903e-02	
98	2.506393e-09	6.036335e-02	
99	2.536074e-09	6.070593e-02	
100	2.563224e-09	6.426796e-02	
101	2.590899e-09	6.938262e-02	
102	2.619305e-09	7.282814e-02	
103	2.645285e-09	7.418765e-02	
104	2.676416e-09	7.475480e-02	
105	2.705495e-09	7.486221e-02	
106	2.732632e-09	7.495687e-02	
107	2.756721e-09	7.485581e-02	
108	2.780643e-09	7.483826e-02	
109	2.803185e-09	7.473395e-02	
110	2.825131e-09	7.476473e-02	
111	2.849720e-09	7.469840e-02	
112	2.876801e-09	7.474335e-02	

Index   time            v(2)            
--------------------------------------------------------------------------------
113	2.901175e-09	7.468534e-02	
114	2.933869e-09	7.473658e-02	
115	2.959066e-09	7.468360e-02	
116	2.988875e-09	7.473728e-02	
117	3.014165e-09	7.468519e-02	
118	3.038646e-09	7.474027e-02	
119	3.064583e-09	7.469178e-02	
120	3.091692e-09	7.473581e-02	
121	3.120851e-09	7.467056e-02	
122	3.145297e-09	7.471829e-02	
123	3.169457e-09	7.472133e-02	
124	3.198355e-09	7.492286e-02	
125	3.224662e-09	7.474534e-02	
126	3.251060e-09	7.437072e-02	
127	3.274628e-09	7.386396e-02	
128	3.297425e-09	7.489702e-02	
129	3.321642e-09	7.876856e-02	
130	3.346657e-09	8.036343e-02	
131	3.371380e-09	7.349744e-02	
132	3.402806e-09	5.535905e-02	
133	3.431178e-09	5.525489e-02	
134	3.459707e-09	1.265473e-01	
135	3.488066e-09	3.359137e-01	
136	3.515888e-09	6.570686e-01	
137	3.549722e-09	1.105946e+00	
138	3.580551e-09	1.479085e+00	
139	3.610940e-09	1.701681e+00	
140	3.635588e-09	1.792773e+00	
141	3.661477e-09	1.838820e+00	
142	3.685550e-09	1.861552e+00	
143	3.711759e-09	1.873214e+00	
144	3.736229e-09	1.877815e+00	
145	3.760635e-09	1.879435e+00	
146	3.788340e-09	1.880115e+00	
147	3.818035e-09	1.880483e+00	
148	3.847424e-09	1.880432e+00	
149	3.879362e-09	1.880188e+00	
150	3.908196e-09	1.879999e+00	
151	3.939111e-09	1.879960e+00	
152	3.966884e-09	1.879946e+00	
153	3.995938e-09	1.879914e+00	
154	4.027206e-09	1.879929e+00	
155	4.058498e-09	1.879903e+00	
156	4.087007e-09	1.879924e+00	
157	4.116900e-09	1.879937e+00	
158	4.146220e-09	1.879937e+00	
159	4.172373e-09	1.879930e+00	
160	4.198233e-09	1.879957e+00	
161	4.223650e-09	1.879925e+00	
162	4.251126e-09	1.879957e+00	
163	4.276804e-09	1.879968e+00	
164	4.299221e-09	1.880050e+00	
165	4.323205e-09	1.879976e+00	
166	4.350293e-09	1.879827e+00	
167	4.375847e-09	1.879607e+00	
168	4.401081e-09	1.880119e+00	
169	4.428113e-09	1.882104e+00	
170	4.452461e-09	1.882241e+00	

Index   time            v(2)            
--------------------------------------------------------------------------------
171	4.478242e-09	1.878343e+00	
172	4.503782e-09	1.870188e+00	
173	4.528714e-09	1.875993e+00	
174	4.554928e-09	1.924138e+00	
175	4.580845e-09	1.980444e+00	
176	4.605870e-09	1.971340e+00	
177	4.636943e-09	1.843014e+00	
178	4.668739e-09	1.498378e+00	
179	4.700804e-09	1.018564e+00	
180	4.734301e-09	4.879169e-01	
181	4.764681e-09	1.982549e-01	
182	4.793281e-09	9.029070e-02	
183	4.819555e-09	6.334979e-02	
184	4.844676e-09	6.027165e-02	
185	4.866090e-09	6.006474e-02	
186	4.891052e-09	6.295770e-02	
187	4.918654e-09	6.827161e-02	
188	4.945797e-09	7.206130e-02	
189	4.973941e-09	7.401133e-02	
190	5.006404e-09	7.472120e-02	
191	5.034637e-09	7.485020e-02	
192	5.064187e-09	7.492378e-02	
193	5.092636e-09	7.487041e-02	
194	5.118667e-09	7.483621e-02	
195	5.146536e-09	7.472202e-02	
196	5.173182e-09	7.473206e-02	
197	5.199536e-09	7.473001e-02	
198	5.227761e-09	7.473775e-02	
199	5.253733e-09	7.472236e-02	
200	5.274798e-09	7.472398e-02	
201	5.298768e-09	7.467169e-02	
202	5.327349e-09	7.471477e-02	
203	5.355371e-09	7.471401e-02	
204	5.382719e-09	7.472499e-02	
205	5.406710e-09	7.469720e-02	
206	5.431582e-09	7.473136e-02	
207	5.461381e-09	7.472837e-02	
208	5.488856e-09	7.475571e-02	
209	5.515881e-09	7.477680e-02	
210	5.539112e-09	7.491207e-02	
211	5.562994e-09	7.473275e-02	
212	5.587805e-09	7.434767e-02	
213	5.613201e-09	7.393888e-02	
214	5.638194e-09	7.523592e-02	
215	5.662058e-09	7.947072e-02	
216	5.689570e-09	7.933329e-02	
217	5.717402e-09	6.923951e-02	
218	5.742737e-09	5.315058e-02	
219	5.767492e-09	5.360334e-02	
220	5.792220e-09	1.110015e-01	
221	5.817322e-09	2.626669e-01	
222	5.844273e-09	5.496498e-01	
223	5.877570e-09	9.878447e-01	
224	5.912892e-09	1.428812e+00	
225	5.950554e-09	1.715939e+00	
226	5.978398e-09	1.806460e+00	
227	6.010549e-09	1.852437e+00	
228	6.040795e-09	1.871135e+00	

Index   time            v(2)            
--------------------------------------------------------------------------------
229	6.069626e-09	1.877788e+00	
230	6.104833e-09	1.879944e+00	
231	6.131068e-09	1.880188e+00	
232	6.158948e-09	1.880441e+00	
233	6.183938e-09	1.880417e+00	
234	6.208818e-09	1.880248e+00	
235	6.233757e-09	1.880070e+00	
236	6.262282e-09	1.879990e+00	
237	6.288108e-09	1.879960e+00	
238	6.311822e-09	1.879949e+00	
239	6.334834e-09	1.879929e+00	
240	6.363907e-09	1.879932e+00	
241	6.391703e-09	1.879926e+00	
242	6.419374e-09	1.879938e+00	
243	6.450207e-09	1.879930e+00	
244	6.480670e-09	1.879938e+00	
245	6.507573e-09	1.879933e+00	
246	6.534438e-09	1.879936e+00	
247	6.560283e-09	1.879923e+00	
248	6.588172e-09	1.879932e+00	
249	6.615823e-09	1.879961e+00	
250	6.636702e-09	1.880019e+00	
251	6.660850e-09	1.879965e+00	
252	6.689197e-09	1.879774e+00	
253	6.715579e-09	1.879613e+00	
254	6.742412e-09	1.880316e+00	
255	6.766502e-09	1.882226e+00	
256	6.793204e-09	1.881929e+00	
257	6.819770e-09	1.876970e+00	
258	6.848271e-09	1.870062e+00	
259	6.874309e-09	1.886069e+00	
260	6.897172e-09	1.938119e+00	
261	6.923161e-09	1.985259e+00	
262	6.950240e-09	1.952321e+00	
263	6.974775e-09	1.835717e+00	
264	7.009323e-09	1.447145e+00	
265	7.042571e-09	9.325050e-01	
266	7.072625e-09	4.624866e-01	
267	7.101676e-09	1.953522e-01	
268	7.129767e-09	9.063017e-02	
269	7.162184e-09	6.085483e-02	
270	7.191406e-09	6.054726e-02	
271	7.217602e-09	6.124514e-02	
272	7.245116e-09	6.620674e-02	
273	7.272222e-09	7.073998e-02	
274	7.300830e-09	7.352235e-02	
275	7.331180e-09	7.454127e-02	
276	7.354318e-09	7.477981e-02	
277	7.382164e-09	7.483207e-02	
278	7.410495e-09	7.492292e-02	
279	7.439908e-09	7.481952e-02	
280	7.472292e-09	7.479742e-02	
281	7.499491e-09	7.469361e-02	
282	7.526152e-09	7.475250e-02	
283	7.552775e-09	7.468302e-02	
284	7.578496e-09	7.474304e-02	
285	7.609517e-09	7.467819e-02	
286	7.640784e-09	7.474180e-02	

Index   time            v(2)            
--------------------------------------------------------------------------------
287	7.669989e-09	7.467957e-02	
288	7.694615e-09	7.474318e-02	
289	7.718383e-09	7.468405e-02	
290	7.745393e-09	7.474807e-02	
291	7.770991e-09	7.467596e-02	
292	7.801002e-09	7.472251e-02	
293	7.825213e-09	7.466862e-02	
294	7.848664e-09	7.480617e-02	
295	7.872966e-09	7.491380e-02	
296	7.897527e-09	7.480186e-02	
297	7.925376e-09	7.427887e-02	
298	7.947623e-09	7.391512e-02	
299	7.969308e-09	7.477394e-02	
300	7.998685e-09	7.952913e-02	
301	8.022495e-09	7.984084e-02	
302	8.048044e-09	7.172505e-02	
303	8.081115e-09	5.282513e-02	
304	8.111000e-09	6.448700e-02	
305	8.134645e-09	1.367124e-01	
306	8.164641e-09	3.770527e-01	
307	8.193591e-09	7.241803e-01	
308	8.225443e-09	1.148215e+00	
309	8.255683e-09	1.504266e+00	
310	8.285197e-09	1.710828e+00	
311	8.313846e-09	1.806349e+00	
312	8.340247e-09	1.846345e+00	
313	8.369146e-09	1.867788e+00	
314	8.393941e-09	1.875721e+00	
315	8.418586e-09	1.878767e+00	
316	8.439040e-09	1.879622e+00	
317	8.465181e-09	1.880124e+00	
318	8.492556e-09	1.880555e+00	
319	8.515254e-09	1.880420e+00	
320	8.537966e-09	1.880304e+00	
321	8.566276e-09	1.880057e+00	
322	8.592592e-09	1.880028e+00	
323	8.621543e-09	1.879930e+00	
324	8.648607e-09	1.879979e+00	
325	8.675073e-09	1.879897e+00	
326	8.702233e-09	1.879962e+00	
327	8.730606e-09	1.879896e+00	
328	8.759517e-09	1.879967e+00	
329	8.793392e-09	1.879900e+00	
330	8.825710e-09	1.879969e+00	
331	8.849182e-09	1.879903e+00	
332	8.877016e-09	1.879965e+00	
333	8.904328e-09	1.879892e+00	
334	8.931804e-09	1.879967e+00	
335	8.964292e-09	1.879964e+00	
336	8.992296e-09	1.880041e+00	
337	9.018041e-09	1.879811e+00	
338	9.043478e-09	1.879635e+00	
339	9.069299e-09	1.879876e+00	
340	9.099452e-09	1.882048e+00	
341	9.125538e-09	1.882115e+00	
342	9.152487e-09	1.877911e+00	
343	9.177126e-09	1.869880e+00	
344	9.201007e-09	1.875752e+00	

Index   time            v(2)            
--------------------------------------------------------------------------------
345	9.227081e-09	1.923380e+00	
346	9.249971e-09	1.977192e+00	
347	9.274563e-09	1.978220e+00	
348	9.306578e-09	1.860496e+00	
349	9.335596e-09	1.569961e+00	
350	9.372790e-09	1.033703e+00	
351	9.418422e-09	3.769770e-01	
352	9.448991e-09	1.482721e-01	
353	9.479212e-09	7.215471e-02	
354	9.507827e-09	6.051564e-02	
355	9.536491e-09	6.067176e-02	
356	9.558997e-09	6.221757e-02	
357	9.588483e-09	6.754597e-02	
358	9.619960e-09	7.215186e-02	
359	9.652026e-09	7.426313e-02	
360	9.682300e-09	7.472448e-02	
361	9.716105e-09	7.488753e-02	
362	9.746780e-09	7.494227e-02	
363	9.775497e-09	7.486558e-02	
364	9.806852e-09	7.477494e-02	
365	9.834629e-09	7.475666e-02	
366	9.861691e-09	7.472143e-02	
367	9.891011e-09	7.472263e-02	
368	9.919694e-09	7.470478e-02	
369	9.951340e-09	7.471725e-02	
370	9.982664e-09	7.473337e-02	
371	1.000000e-08	7.471750e-02	

--------------------------------------------------------------------------
                     * 17-stage CMOS ring oscillator
               Transient Analysis Wed Feb 15 12:40:12  2017

Legend:  + = v(5)             
--------------------------------------------------------------------------
 time       v(5)     0.00e+00                 1.00e+00                 2.00e+00 
----------------------|------------------------|------------------------|
 0.000e+00  0.000e+00 +                        .                        . 
 1.000e-10  7.146e-02 .+                       .                        . 
 2.000e-10  4.805e-01 .           +            .                        . 
 3.000e-10  1.688e+00 .                        .                +       . 
 4.000e-10  1.870e+00 .                        .                    +   . 
 5.000e-10  1.880e+00 .                        .                     +  . 
 6.000e-10  1.880e+00 .                        .                     +  . 
 7.000e-10  1.880e+00 .                        .                    +   . 
 8.000e-10  1.880e+00 .                        .                    +   . 
 9.000e-10  1.880e+00 .                        .                    +   . 
 1.000e-09  1.880e+00 .                        .                     +  . 
 1.100e-09  1.880e+00 .                        .                    +   . 
 1.200e-09  1.878e+00 .                        .                    +   . 
 1.300e-09  1.966e+00 .                        .                       +. 
 1.400e-09  8.722e-01 .                    +   .                        . 
 1.500e-09  6.468e-02 .+                       .                        . 
 1.600e-09  6.451e-02 .+                       .                        . 
 1.700e-09  7.456e-02 .+                       .                        . 
 1.800e-09  7.484e-02 .+                       .                        . 
 1.900e-09  7.470e-02 .+                       .                        . 
 2.000e-09  7.469e-02 .+                       .                        . 
 2.100e-09  7.470e-02 .+                       .                        . 
 2.200e-09  7.478e-02 .+                       .                        . 
 2.300e-09  7.429e-02 .+                       .                        . 
 2.400e-09  7.967e-02 .+                       .                        . 
 2.500e-09  9.064e-02 . +                      .                        . 
 2.600e-09  1.320e+00 .                        .       +                . 
 2.700e-09  1.843e+00 .                        .                    +   . 
 2.800e-09  1.880e+00 .                        .                    +   . 
 2.900e-09  1.880e+00 .                        .                     +  . 
 3.000e-09  1.880e+00 .                        .                    +   . 
 3.100e-09  1.880e+00 .                        .                    +   . 
 3.200e-09  1.880e+00 .                        .                    +   . 
 3.300e-09  1.880e+00 .                        .                    +   . 
 3.400e-09  1.880e+00 .                        .                    +   . 
 3.500e-09  1.882e+00 .                        .                     +  . 
 3.600e-09  1.891e+00 .                        .                     +  . 
 3.700e-09  1.555e+00 .                        .            +           . 
 3.800e-09  1.432e-01 .  +                     .                        . 
 3.900e-09  5.787e-02 .+                       .                        . 
 4.000e-09  7.351e-02 .+                       .                        . 
 4.100e-09  7.488e-02 .+                       .                        . 
 4.200e-09  7.471e-02 .+                       .                        . 
 4.300e-09  7.469e-02 .+                       .                        . 
 4.400e-09  7.470e-02 .+                       .                        . 
 4.500e-09  7.468e-02 .+                       .                        . 
 4.600e-09  7.466e-02 .+                       .                        . 
 4.700e-09  7.586e-02 .+                       .                        . 
 4.800e-09  5.329e-02 .+                       .                        . 
 4.900e-09  8.465e-01 .                    +   .                        . 
 5.000e-09  1.783e+00 .                        .                  +     . 
 5.100e-09  1.877e+00 .                        .                    +   . 
----------------------|------------------------|------------------------|
 time       v(5)     0.00e+00                 1.00e+00                 2.00e+00 

 time       v(5)     0.00e+00                 1.00e+00                 2.00e+00 
----------------------|------------------------|------------------------|
 5.200e-09  1.881e+00 .                        .                     +  . 
 5.300e-09  1.880e+00 .                        .                    +   . 
 5.400e-09  1.880e+00 .                        .                    +   . 
 5.500e-09  1.880e+00 .                        .                    +   . 
 5.600e-09  1.880e+00 .                        .                    +   . 
 5.700e-09  1.880e+00 .                        .                    +   . 
 5.800e-09  1.881e+00 .                        .                     +  . 
 5.900e-09  1.872e+00 .                        .                    +   . 
 6.000e-09  1.942e+00 .                        .                      + . 
 6.100e-09  4.513e-01 .          +             .                        . 
 6.200e-09  5.479e-02 .+                       .                        . 
 6.300e-09  6.950e-02 .+                       .                        . 
 6.400e-09  7.478e-02 .+                       .                        . 
 6.500e-09  7.478e-02 .+                       .                        . 
 6.600e-09  7.471e-02 .+                       .                        . 
 6.700e-09  7.470e-02 .+                       .                        . 
 6.800e-09  7.469e-02 .+                       .                        . 
 6.900e-09  7.484e-02 .+                       .                        . 
 7.000e-09  7.418e-02 .+                       .                        . 
 7.100e-09  7.738e-02 .+                       .                        . 
 7.200e-09  3.167e-01 .      +                 .                        . 
 7.300e-09  1.607e+00 .                        .              +         . 
 7.400e-09  1.863e+00 .                        .                    +   . 
 7.500e-09  1.880e+00 .                        .                     +  . 
 7.600e-09  1.880e+00 .                        .                     +  . 
 7.700e-09  1.880e+00 .                        .                    +   . 
 7.800e-09  1.880e+00 .                        .                    +   . 
 7.900e-09  1.880e+00 .                        .                    +   . 
 8.000e-09  1.880e+00 .                        .                    +   . 
 8.100e-09  1.880e+00 .                        .                    +   . 
 8.200e-09  1.880e+00 .                        .                    +   . 
 8.300e-09  1.949e+00 .                        .                      + . 
 8.400e-09  1.053e+00 .                        .+                       . 
 8.500e-09  7.048e-02 .+                       .                        . 
 8.600e-09  6.248e-02 .+                       .                        . 
 8.700e-09  7.436e-02 .+                       .                        . 
 8.800e-09  7.492e-02 .+                       .                        . 
 8.900e-09  7.477e-02 .+                       .                        . 
 9.000e-09  7.468e-02 .+                       .                        . 
 9.100e-09  7.464e-02 .+                       .                        . 
 9.200e-09  7.467e-02 .+                       .                        . 
 9.300e-09  7.434e-02 .+                       .                        . 
 9.400e-09  7.909e-02 .+                       .                        . 
 9.500e-09  6.689e-02 .+                       .                        . 
 9.600e-09  1.221e+00 .                        .    +                   . 
 9.700e-09  1.833e+00 .                        .                   +    . 
 9.800e-09  1.879e+00 .                        .                    +   . 
 9.900e-09  1.880e+00 .                        .                     +  . 
 1.000e-08  1.880e+00 .                        .                    +   . 
----------------------|------------------------|------------------------|
 time       v(5)     0.00e+00                 1.00e+00                 2.00e+00 

Total CPU time: 1.820 seconds.
CPU time since last call: 1.820 seconds.
Current dynamic memory usage = 536576,
Dynamic memory limit = -15011841.

Nominal temperature = 27
Operating temperature = 27
Total iterations = 1816
Transient iterations = 1812
Circuit Equations = 54
Transient timepoints = 520
Accepted timepoints = 372
Rejected timepoints = 148
Total Analysis Time = 0.9
Transient time = 0.9
matrix reordering time = 0
L-U decomposition time = 0.01
Matrix solve time = 0
transient L-U decomp time = 0.01
Transient solve time = 0
Transient iters per point = 0
Load time = 0.88

