
Circuit: * Operational amplifier (ac)

Circuit: * Operational amplifier (ac)
Date: Wed Feb 15 12:40:12  2017


                          * Operational amplifier (ac)
                          AC Analysis  Wed Feb 15 12:40:12  2017
--------------------------------------------------------------------------------
Index   frequency                       db(v(8))        
--------------------------------------------------------------------------------
0	1.000000e+02,	0.000000e+00	4.960132e-02	
1	1.258925e+02,	0.000000e+00	4.366331e-02	
2	1.584893e+02,	0.000000e+00	3.589779e-02	
3	1.995262e+02,	0.000000e+00	2.650564e-02	
4	2.511886e+02,	0.000000e+00	1.616279e-02	
5	3.162278e+02,	0.000000e+00	5.885461e-03	
6	3.981072e+02,	0.000000e+00	-3.335022e-03	
7	5.011872e+02,	0.000000e+00	-1.087935e-02	
8	6.309573e+02,	0.000000e+00	-1.660053e-02	
9	7.943282e+02,	0.000000e+00	-2.069413e-02	
10	1.000000e+03,	0.000000e+00	-2.350295e-02	
11	1.258925e+03,	0.000000e+00	-2.537539e-02	
12	1.584893e+03,	0.000000e+00	-2.659997e-02	
13	1.995262e+03,	0.000000e+00	-2.739123e-02	
14	2.511886e+03,	0.000000e+00	-2.789916e-02	
15	3.162278e+03,	0.000000e+00	-2.822484e-02	
16	3.981072e+03,	0.000000e+00	-2.843508e-02	
17	5.011872e+03,	0.000000e+00	-2.857387e-02	
18	6.309573e+03,	0.000000e+00	-2.867061e-02	
19	7.943282e+03,	0.000000e+00	-2.874593e-02	
20	1.000000e+04,	0.000000e+00	-2.881603e-02	
21	1.258925e+04,	0.000000e+00	-2.889598e-02	
22	1.584893e+04,	0.000000e+00	-2.900303e-02	
23	1.995262e+04,	0.000000e+00	-2.916028e-02	
24	2.511886e+04,	0.000000e+00	-2.940167e-02	
25	3.162278e+04,	0.000000e+00	-2.977927e-02	
26	3.981072e+04,	0.000000e+00	-3.037454e-02	
27	5.011872e+04,	0.000000e+00	-3.131584e-02	
28	6.309573e+04,	0.000000e+00	-3.280605e-02	
29	7.943282e+04,	0.000000e+00	-3.516603e-02	
30	1.000000e+05,	0.000000e+00	-3.890324e-02	
31	1.258925e+05,	0.000000e+00	-4.481943e-02	
32	1.584893e+05,	0.000000e+00	-5.417927e-02	
33	1.995262e+05,	0.000000e+00	-6.897228e-02	
34	2.511886e+05,	0.000000e+00	-9.231478e-02	
35	3.162278e+05,	0.000000e+00	-1.290549e-01	
36	3.981072e+05,	0.000000e+00	-1.866545e-01	
37	5.011872e+05,	0.000000e+00	-2.764064e-01	
38	6.309573e+05,	0.000000e+00	-4.149585e-01	
39	7.943282e+05,	0.000000e+00	-6.258733e-01	
40	1.000000e+06,	0.000000e+00	-9.404786e-01	
41	1.258925e+06,	0.000000e+00	-1.396624e+00	
42	1.584893e+06,	0.000000e+00	-2.033740e+00	
43	1.995262e+06,	0.000000e+00	-2.883898e+00	
44	2.511886e+06,	0.000000e+00	-3.961834e+00	
45	3.162278e+06,	0.000000e+00	-5.259554e+00	
46	3.981072e+06,	0.000000e+00	-6.749241e+00	
47	5.011872e+06,	0.000000e+00	-8.392368e+00	
48	6.309573e+06,	0.000000e+00	-1.014941e+01	
49	7.943282e+06,	0.000000e+00	-1.198601e+01	
50	1.000000e+07,	0.000000e+00	-1.387514e+01	
51	1.258925e+07,	0.000000e+00	-1.579645e+01	
52	1.584893e+07,	0.000000e+00	-1.773450e+01	
53	1.995262e+07,	0.000000e+00	-1.967669e+01	
54	2.511886e+07,	0.000000e+00	-2.161113e+01	

Index   frequency                       db(v(8))        
--------------------------------------------------------------------------------
55	3.162278e+07,	0.000000e+00	-2.352458e+01	
56	3.981072e+07,	0.000000e+00	-2.540038e+01	
57	5.011872e+07,	0.000000e+00	-2.721641e+01	
58	6.309573e+07,	0.000000e+00	-2.894353e+01	
59	7.943282e+07,	0.000000e+00	-3.054579e+01	
60	1.000000e+08,	0.000000e+00	-3.198376e+01	

CPU time since last call: 0.020 seconds.

Total CPU time: 0.020 seconds.

Current dynamic memory usage = 401408,
Dynamic memory limit = -30887937.

