
Circuit: ** NMOSFET: Benchmarking Implementation of BSIM4.8.0

Simulated by Navid Paydavosi.
Warning: Zero resistance returned from RdseffGeo
Warning: Zero resistance returned from RdseffGeo
Warning: toxe, toxp and dtox all given and toxe != toxp + dtox; dtox ignored.
Warning: This model is BSIM4.8.0; you specified a wrong version number.
Circuit: ** NMOSFET: Benchmarking Implementation of BSIM4.8.0
Date: Wed Oct 30 18:37:55  2013


              ** NMOSFET: Benchmarking Implementation of BSIM4.8.0
              DC transfer characteristic  Wed Oct 30 18:37:55  2013
--------------------------------------------------------------------------------
Index   sweep           -i(vds)         
--------------------------------------------------------------------------------
0	1.000000e-01	5.359224e-07	
1	2.000000e-01	8.943016e-07	
2	3.000000e-01	1.452625e-06	
3	4.000000e-01	2.336436e-06	
4	5.000000e-01	3.728850e-06	
5	6.000000e-01	5.904897e-06	
6	7.000000e-01	9.272429e-06	
7	8.000000e-01	1.442568e-05	
8	9.000000e-01	2.221366e-05	
9	1.000000e+00	3.382406e-05	
10	1.100000e+00	5.088120e-05	
11	1.200000e+00	7.555203e-05	
12	1.000000e-01	6.150405e-06	
13	2.000000e-01	9.955742e-06	
14	3.000000e-01	1.560275e-05	
15	4.000000e-01	2.408017e-05	
16	5.000000e-01	3.666266e-05	
17	6.000000e-01	5.505435e-05	
18	7.000000e-01	8.146840e-05	
19	8.000000e-01	1.186603e-04	
20	9.000000e-01	1.698808e-04	
21	1.000000e+00	2.387173e-04	
22	1.100000e+00	3.288210e-04	
23	1.200000e+00	4.435754e-04	
24	1.000000e-01	5.581514e-05	
25	2.000000e-01	8.531361e-05	
26	3.000000e-01	1.251901e-04	
27	4.000000e-01	1.796002e-04	
28	5.000000e-01	2.522345e-04	
29	6.000000e-01	3.465464e-04	
30	7.000000e-01	4.653612e-04	
31	8.000000e-01	6.104870e-04	
32	9.000000e-01	7.825057e-04	
33	1.000000e+00	9.808360e-04	
34	1.100000e+00	1.204054e-03	
35	1.200000e+00	1.450380e-03	
36	1.000000e-01	3.353417e-04	
37	2.000000e-01	4.714370e-04	
38	3.000000e-01	6.236498e-04	
39	4.000000e-01	8.005310e-04	
40	5.000000e-01	1.002253e-03	
41	6.000000e-01	1.227159e-03	
42	7.000000e-01	1.472746e-03	
43	8.000000e-01	1.736164e-03	
44	9.000000e-01	2.014604e-03	
45	1.000000e+00	2.305625e-03	
46	1.100000e+00	2.607422e-03	
47	1.200000e+00	2.919056e-03	
48	1.000000e-01	1.075196e-03	
49	2.000000e-01	1.422730e-03	
50	3.000000e-01	1.706164e-03	
51	4.000000e-01	1.991578e-03	
52	5.000000e-01	2.284876e-03	
53	6.000000e-01	2.585996e-03	
54	7.000000e-01	2.893833e-03	

Index   sweep           -i(vds)         
--------------------------------------------------------------------------------
55	8.000000e-01	3.207189e-03	
56	9.000000e-01	3.525069e-03	
57	1.000000e+00	3.846864e-03	
58	1.100000e+00	4.172531e-03	
59	1.200000e+00	4.502782e-03	
60	1.000000e-01	1.961352e-03	
61	2.000000e-01	2.686912e-03	
62	3.000000e-01	3.078201e-03	
63	4.000000e-01	3.421606e-03	
64	5.000000e-01	3.754501e-03	
65	6.000000e-01	4.084681e-03	
66	7.000000e-01	4.414461e-03	
67	8.000000e-01	4.744643e-03	
68	9.000000e-01	5.075576e-03	
69	1.000000e+00	5.407607e-03	
70	1.100000e+00	5.741420e-03	
71	1.200000e+00	6.078326e-03	
72	1.000000e-01	2.641848e-03	
73	2.000000e-01	3.923821e-03	
74	3.000000e-01	4.478625e-03	
75	4.000000e-01	4.875258e-03	
76	5.000000e-01	5.235605e-03	
77	6.000000e-01	5.583566e-03	
78	7.000000e-01	5.926278e-03	
79	8.000000e-01	6.266537e-03	
80	9.000000e-01	6.605682e-03	
81	1.000000e+00	6.944594e-03	
82	1.100000e+00	7.284259e-03	
83	1.200000e+00	7.626197e-03	
84	1.000000e-01	3.115772e-03	
85	2.000000e-01	4.965571e-03	
86	3.000000e-01	5.812974e-03	
87	4.000000e-01	6.292671e-03	
88	5.000000e-01	6.687078e-03	
89	6.000000e-01	7.054458e-03	
90	7.000000e-01	7.410526e-03	
91	8.000000e-01	7.761044e-03	
92	9.000000e-01	8.108610e-03	
93	1.000000e+00	8.454691e-03	
94	1.100000e+00	8.800535e-03	
95	1.200000e+00	9.147769e-03	
96	1.000000e-01	3.453630e-03	
97	2.000000e-01	5.774321e-03	
98	3.000000e-01	7.032600e-03	
99	4.000000e-01	7.656764e-03	
100	5.000000e-01	8.101837e-03	
101	6.000000e-01	8.494585e-03	
102	7.000000e-01	8.866790e-03	
103	8.000000e-01	9.229155e-03	
104	9.000000e-01	9.586209e-03	
105	1.000000e+00	9.940267e-03	
106	1.100000e+00	1.029293e-02	
107	1.200000e+00	1.064595e-02	
108	1.000000e-01	3.703817e-03	
109	2.000000e-01	6.392135e-03	
110	3.000000e-01	8.091348e-03	
111	4.000000e-01	8.951492e-03	
112	5.000000e-01	9.476042e-03	

Index   sweep           -i(vds)         
--------------------------------------------------------------------------------
113	6.000000e-01	9.903685e-03	
114	7.000000e-01	1.029610e-02	
115	8.000000e-01	1.067243e-02	
116	9.000000e-01	1.104026e-02	
117	1.000000e+00	1.140317e-02	
118	1.100000e+00	1.176332e-02	
119	1.200000e+00	1.212263e-02	
120	1.000000e-01	3.895151e-03	
121	2.000000e-01	6.871985e-03	
122	3.000000e-01	8.965012e-03	
123	4.000000e-01	1.015159e-02	
124	5.000000e-01	1.080256e-02	
125	6.000000e-01	1.128002e-02	
126	7.000000e-01	1.169844e-02	
127	8.000000e-01	1.209152e-02	
128	9.000000e-01	1.247165e-02	
129	1.000000e+00	1.284439e-02	
130	1.100000e+00	1.321272e-02	
131	1.200000e+00	1.357888e-02	
132	1.000000e-01	4.045230e-03	
133	2.000000e-01	7.252877e-03	
134	3.000000e-01	9.669234e-03	
135	4.000000e-01	1.122446e-02	
136	5.000000e-01	1.206890e-02	
137	6.000000e-01	1.261974e-02	
138	7.000000e-01	1.307270e-02	
139	8.000000e-01	1.348628e-02	
140	9.000000e-01	1.388068e-02	
141	1.000000e+00	1.426441e-02	
142	1.100000e+00	1.464172e-02	
143	1.200000e+00	1.501533e-02	

CPU time since last call: 0.000 seconds.

Total CPU time: 0.000 seconds.

Current dynamic memory usage = 262144,
Dynamic memory limit = -527110145.

